api/Rede_CAI_teste_sem_trafos_Ajustada_VLN_elem.Txt

NODE-GROUND VOLTAGES BY CIRCUIT ELEMENT

Power Delivery Elements

Bus  (node ref)  Phase    Magnitude, kV (pu)    Angle

ELEMENT = "Vsource.SOURCE"
3259  (  1)    1           47.998 (  0.9447) /_   -4.5
3259  (  2)    2           48.011 (   0.945) /_ -124.5
3259  (  3)    3           48.023 (  0.9452) /_  115.5
------------
3259  (  0)    1                0 (       0) /_    0.0
3259  (  0)    2                0 (       0) /_    0.0
3259  (  0)    3                0 (       0) /_    0.0

ELEMENT = "Line.12465653_ID5630"
2645  (  4)    1            7.495 (  0.9407) /_  -35.6
2645  (  5)    2           7.4913 (  0.9402) /_ -155.6
2645  (  6)    3           7.4956 (  0.9408) /_   84.4
------------
3256  (  7)    1           7.4982 (  0.9411) /_  -35.6
3256  (  8)    2           7.4947 (  0.9407) /_ -155.6
3256  (  9)    3           7.4989 (  0.9412) /_   84.4

ELEMENT = "Line.12465646_ID4573"
2221  ( 10)    1           7.4967 (  0.9409) /_  -35.6
2221  ( 11)    2           7.4931 (  0.9405) /_ -155.6
2221  ( 12)    3           7.4973 (   0.941) /_   84.4
------------
3256  (  7)    1           7.4982 (  0.9411) /_  -35.6
3256  (  8)    2           7.4947 (  0.9407) /_ -155.6
3256  (  9)    3           7.4989 (  0.9412) /_   84.4

ELEMENT = "Line.363434473_ID6118"
3257  ( 13)    1           7.4121 (  0.9303) /_  -36.9
3257  ( 14)    2           7.4122 (  0.9303) /_ -156.9
3257  ( 15)    3           7.4166 (  0.9309) /_   83.2
------------
927   ( 16)    1           7.4115 (  0.9302) /_  -36.9
927   ( 17)    2           7.4117 (  0.9302) /_ -156.9
927   ( 18)    3           7.4161 (  0.9308) /_   83.2

ELEMENT = "Line.363434188_ID5894"
1972  ( 19)    1           7.4116 (  0.9302) /_  -37.0
1972  ( 20)    2           7.4117 (  0.9303) /_ -156.9
1972  ( 21)    3           7.4162 (  0.9308) /_   83.1
------------
3257  ( 13)    1           7.4121 (  0.9303) /_  -36.9
3257  ( 14)    2           7.4122 (  0.9303) /_ -156.9
3257  ( 15)    3           7.4166 (  0.9309) /_   83.2

ELEMENT = "Line.361598269_ID4970"
13    ( 22)    1           7.4109 (  0.9301) /_  -37.0
13    ( 23)    2           7.4109 (  0.9301) /_ -156.9
13    ( 24)    3           7.4154 (  0.9307) /_   83.1
------------
3257  ( 13)    1           7.4121 (  0.9303) /_  -36.9
3257  ( 14)    2           7.4122 (  0.9303) /_ -156.9
3257  ( 15)    3           7.4166 (  0.9309) /_   83.2

ELEMENT = "Line.361598276_ID4098"
3257  ( 13)    1           7.4121 (  0.9303) /_  -36.9
3257  ( 14)    2           7.4122 (  0.9303) /_ -156.9
3257  ( 15)    3           7.4166 (  0.9309) /_   83.2
------------
436   ( 25)    1           7.4095 (    0.93) /_  -37.0
436   ( 26)    2           7.4095 (    0.93) /_ -156.9
436   ( 27)    3            7.414 (  0.9305) /_   83.1

ELEMENT = "Line.363434459_ID3276"
3257  ( 13)    1           7.4121 (  0.9303) /_  -36.9
3257  ( 14)    2           7.4122 (  0.9303) /_ -156.9
3257  ( 15)    3           7.4166 (  0.9309) /_   83.2
------------
1100  ( 28)    1           7.4105 (  0.9301) /_  -37.0
1100  ( 29)    2           7.4106 (  0.9301) /_ -156.9
1100  ( 30)    3           7.4151 (  0.9307) /_   83.1

ELEMENT = "Line.12465654_ID5322"
2922  ( 31)    1            7.494 (  0.9406) /_  -35.1
2922  ( 32)    2           7.4918 (  0.9403) /_ -155.1
2922  ( 33)    3           7.4961 (  0.9408) /_   84.9
------------
3258  ( 34)    1           7.4964 (  0.9409) /_  -35.1
3258  ( 35)    2           7.4942 (  0.9406) /_ -155.1
3258  ( 36)    3           7.4985 (  0.9411) /_   84.9

ELEMENT = "Line.12465633_ID5631"
2645  (  4)    1            7.495 (  0.9407) /_  -35.6
2645  (  5)    2           7.4913 (  0.9402) /_ -155.6
2645  (  6)    3           7.4956 (  0.9408) /_   84.4
------------
2648  ( 37)    1           7.4926 (  0.9404) /_  -35.6
2648  ( 38)    2           7.4888 (  0.9399) /_ -155.6
2648  ( 39)    3           7.4931 (  0.9405) /_   84.4

ELEMENT = "Line.12465631_ID4574"
2221  ( 10)    1           7.4967 (  0.9409) /_  -35.6
2221  ( 11)    2           7.4931 (  0.9405) /_ -155.6
2221  ( 12)    3           7.4973 (   0.941) /_   84.4
------------
2223  ( 40)    1           7.4956 (  0.9408) /_  -35.6
2223  ( 41)    2           7.4919 (  0.9403) /_ -155.6
2223  ( 42)    3           7.4962 (  0.9408) /_   84.4

ELEMENT = "Line.12465658_ID6119"
927   ( 16)    1           7.4115 (  0.9302) /_  -36.9
927   ( 17)    2           7.4117 (  0.9302) /_ -156.9
927   ( 18)    3           7.4161 (  0.9308) /_   83.2
------------
928   ( 43)    1           7.4098 (    0.93) /_  -37.0
928   ( 44)    2           7.4101 (  0.9301) /_ -156.9
928   ( 45)    3           7.4145 (  0.9306) /_   83.1

ELEMENT = "Line.12465648_ID5895"
1972  ( 19)    1           7.4116 (  0.9302) /_  -37.0
1972  ( 20)    2           7.4117 (  0.9303) /_ -156.9
1972  ( 21)    3           7.4162 (  0.9308) /_   83.1
------------
1973  ( 46)    1           7.4111 (  0.9302) /_  -37.0
1973  ( 47)    2           7.4112 (  0.9302) /_ -156.9
1973  ( 48)    3           7.4157 (  0.9307) /_   83.1

ELEMENT = "Line.12465656_ID3277"
1100  ( 28)    1           7.4105 (  0.9301) /_  -37.0
1100  ( 29)    2           7.4106 (  0.9301) /_ -156.9
1100  ( 30)    3           7.4151 (  0.9307) /_   83.1
------------
1101  ( 49)    1           7.4087 (  0.9299) /_  -37.0
1101  ( 50)    2            7.409 (  0.9299) /_ -156.9
1101  ( 51)    3           7.4134 (  0.9305) /_   83.1

ELEMENT = "Line.12465632_ID5323"
2924  ( 52)    1           7.4914 (  0.9403) /_  -35.2
2924  ( 53)    2           7.4892 (    0.94) /_ -155.1
2924  ( 54)    3           7.4935 (  0.9405) /_   84.9
------------
2922  ( 31)    1            7.494 (  0.9406) /_  -35.1
2922  ( 32)    2           7.4918 (  0.9403) /_ -155.1
2922  ( 33)    3           7.4961 (  0.9408) /_   84.9

ELEMENT = "Line.12465599_ID5632"
2647  ( 55)    1           7.4841 (  0.9393) /_  -35.7
2647  ( 56)    2             7.48 (  0.9388) /_ -155.7
2647  ( 57)    3           7.4843 (  0.9394) /_   84.3
------------
2648  ( 37)    1           7.4926 (  0.9404) /_  -35.6
2648  ( 38)    2           7.4888 (  0.9399) /_ -155.6
2648  ( 39)    3           7.4931 (  0.9405) /_   84.4

ELEMENT = "Line.12465600_ID4575"
2222  ( 58)    1           7.4914 (  0.9403) /_  -35.7
2222  ( 59)    2           7.4876 (  0.9398) /_ -155.7
2222  ( 60)    3           7.4918 (  0.9403) /_   84.3
------------
2223  ( 40)    1           7.4956 (  0.9408) /_  -35.6
2223  ( 41)    2           7.4919 (  0.9403) /_ -155.6
2223  ( 42)    3           7.4962 (  0.9408) /_   84.4

ELEMENT = "Line.12465658_ID6120"
929   ( 61)    1           7.4097 (    0.93) /_  -37.0
929   ( 62)    2             7.41 (    0.93) /_ -156.9
929   ( 63)    3           7.4144 (  0.9306) /_   83.1
------------
928   ( 43)    1           7.4098 (    0.93) /_  -37.0
928   ( 44)    2           7.4101 (  0.9301) /_ -156.9
928   ( 45)    3           7.4145 (  0.9306) /_   83.1

ELEMENT = "Line.12465628_ID5896"
1973  ( 46)    1           7.4111 (  0.9302) /_  -37.0
1973  ( 47)    2           7.4112 (  0.9302) /_ -156.9
1973  ( 48)    3           7.4157 (  0.9307) /_   83.1
------------
1975  ( 64)    1           7.4104 (  0.9301) /_  -37.0
1975  ( 65)    2           7.4105 (  0.9301) /_ -156.9
1975  ( 66)    3           7.4149 (  0.9307) /_   83.1

ELEMENT = "Line.363435121_ID4971"
13    ( 22)    1           7.4109 (  0.9301) /_  -37.0
13    ( 23)    2           7.4109 (  0.9301) /_ -156.9
13    ( 24)    3           7.4154 (  0.9307) /_   83.1
------------
12    ( 67)    1           7.4075 (  0.9297) /_  -37.0
12    ( 68)    2           7.4073 (  0.9297) /_ -156.9
12    ( 69)    3           7.4119 (  0.9303) /_   83.1

ELEMENT = "Line.363435071_ID4099"
434   ( 70)    1           7.4023 (  0.9291) /_  -37.0
434   ( 71)    2            7.402 (   0.929) /_ -156.9
434   ( 72)    3           7.4066 (  0.9296) /_   83.1
------------
436   ( 25)    1           7.4095 (    0.93) /_  -37.0
436   ( 26)    2           7.4095 (    0.93) /_ -156.9
436   ( 27)    3            7.414 (  0.9305) /_   83.1

ELEMENT = "Line.12465630_ID3278"
1101  ( 49)    1           7.4087 (  0.9299) /_  -37.0
1101  ( 50)    2            7.409 (  0.9299) /_ -156.9
1101  ( 51)    3           7.4134 (  0.9305) /_   83.1
------------
1103  ( 73)    1           7.4062 (  0.9296) /_  -37.0
1103  ( 74)    2           7.4065 (  0.9296) /_ -156.9
1103  ( 75)    3            7.411 (  0.9302) /_   83.1

ELEMENT = "Line.12465603_ID5324"
2923  ( 76)    1            7.482 (  0.9391) /_  -35.2
2923  ( 77)    2           7.4797 (  0.9388) /_ -155.2
2923  ( 78)    3           7.4841 (  0.9393) /_   84.8
------------
2924  ( 52)    1           7.4914 (  0.9403) /_  -35.2
2924  ( 53)    2           7.4892 (    0.94) /_ -155.1
2924  ( 54)    3           7.4935 (  0.9405) /_   84.9

ELEMENT = "Line.12465599_ID5633"
2646  ( 79)    1           7.4823 (  0.9391) /_  -35.7
2646  ( 80)    2           7.4781 (  0.9386) /_ -155.7
2646  ( 81)    3           7.4825 (  0.9391) /_   84.3
------------
2647  ( 55)    1           7.4841 (  0.9393) /_  -35.7
2647  ( 56)    2             7.48 (  0.9388) /_ -155.7
2647  ( 57)    3           7.4843 (  0.9394) /_   84.3

ELEMENT = "Line.12465600_ID4576"
2222  ( 58)    1           7.4914 (  0.9403) /_  -35.7
2222  ( 59)    2           7.4876 (  0.9398) /_ -155.7
2222  ( 60)    3           7.4918 (  0.9403) /_   84.3
------------
2227  ( 82)    1            7.491 (  0.9402) /_  -35.7
2227  ( 83)    2           7.4872 (  0.9397) /_ -155.7
2227  ( 84)    3           7.4914 (  0.9403) /_   84.3

ELEMENT = "Line.12465629_ID6121"
929   ( 61)    1           7.4097 (    0.93) /_  -37.0
929   ( 62)    2             7.41 (    0.93) /_ -156.9
929   ( 63)    3           7.4144 (  0.9306) /_   83.1
------------
931   ( 85)    1           7.4072 (  0.9297) /_  -37.0
931   ( 86)    2           7.4077 (  0.9298) /_ -156.9
931   ( 87)    3           7.4121 (  0.9303) /_   83.1

ELEMENT = "Line.12465596_ID5897"
1975  ( 64)    1           7.4104 (  0.9301) /_  -37.0
1975  ( 65)    2           7.4105 (  0.9301) /_ -156.9
1975  ( 66)    3           7.4149 (  0.9307) /_   83.1
------------
1974  ( 88)    1           7.4075 (  0.9297) /_  -37.0
1974  ( 89)    2           7.4078 (  0.9298) /_ -156.9
1974  ( 90)    3           7.4123 (  0.9303) /_   83.1

ELEMENT = "Line.12465602_ID3279"
1102  ( 91)    1           7.3969 (  0.9284) /_  -37.1
1102  ( 92)    2           7.3977 (  0.9285) /_ -157.0
1102  ( 93)    3            7.402 (   0.929) /_   83.1
------------
1103  ( 73)    1           7.4062 (  0.9296) /_  -37.0
1103  ( 74)    2           7.4065 (  0.9296) /_ -156.9
1103  ( 75)    3            7.411 (  0.9302) /_   83.1

ELEMENT = "Line.12465603_ID5325"
2923  ( 76)    1            7.482 (  0.9391) /_  -35.2
2923  ( 77)    2           7.4797 (  0.9388) /_ -155.2
2923  ( 78)    3           7.4841 (  0.9393) /_   84.8
------------
2926  ( 94)    1           7.4807 (  0.9389) /_  -35.2
2926  ( 95)    2           7.4784 (  0.9386) /_ -155.2
2926  ( 96)    3           7.4828 (  0.9392) /_   84.8

ELEMENT = "Line.12465599_ID5634"
2649  ( 97)    1           7.4798 (  0.9388) /_  -35.7
2649  ( 98)    2           7.4755 (  0.9383) /_ -155.7
2649  ( 99)    3           7.4799 (  0.9388) /_   84.3
------------
2646  ( 79)    1           7.4823 (  0.9391) /_  -35.7
2646  ( 80)    2           7.4781 (  0.9386) /_ -155.7
2646  ( 81)    3           7.4825 (  0.9391) /_   84.3

ELEMENT = "Line.12465589_ID4577"
2226  (100)    1           7.4862 (  0.9396) /_  -35.7
2226  (101)    2           7.4822 (  0.9391) /_ -155.7
2226  (102)    3           7.4864 (  0.9396) /_   84.3
------------
2227  ( 82)    1            7.491 (  0.9402) /_  -35.7
2227  ( 83)    2           7.4872 (  0.9397) /_ -155.7
2227  ( 84)    3           7.4914 (  0.9403) /_   84.3

ELEMENT = "Line.12465598_ID6122"
930   (103)    1           7.3983 (  0.9286) /_  -37.0
930   (104)    2           7.3995 (  0.9287) /_ -156.9
930   (105)    3           7.4039 (  0.9293) /_   83.1
------------
931   ( 85)    1           7.4072 (  0.9297) /_  -37.0
931   ( 86)    2           7.4077 (  0.9298) /_ -156.9
931   ( 87)    3           7.4121 (  0.9303) /_   83.1

ELEMENT = "Line.12465596_ID5898"
1974  ( 88)    1           7.4075 (  0.9297) /_  -37.0
1974  ( 89)    2           7.4078 (  0.9298) /_ -156.9
1974  ( 90)    3           7.4123 (  0.9303) /_   83.1
------------
1978  (106)    1           7.4073 (  0.9297) /_  -37.0
1978  (107)    2           7.4076 (  0.9297) /_ -156.9
1978  (108)    3           7.4121 (  0.9303) /_   83.1

ELEMENT = "Line.363435153_ID4972"
12    ( 67)    1           7.4075 (  0.9297) /_  -37.0
12    ( 68)    2           7.4073 (  0.9297) /_ -156.9
12    ( 69)    3           7.4119 (  0.9303) /_   83.1
------------
9     (109)    1           7.4042 (  0.9293) /_  -37.0
9     (110)    2           7.4038 (  0.9293) /_ -156.9
9     (111)    3           7.4084 (  0.9298) /_   83.1

ELEMENT = "Line.363435303_ID4100"
432   (112)    1           7.3952 (  0.9282) /_  -37.1
432   (113)    2           7.3945 (  0.9281) /_ -157.0
432   (114)    3           7.3992 (  0.9287) /_   83.0
------------
434   ( 70)    1           7.4023 (  0.9291) /_  -37.0
434   ( 71)    2            7.402 (   0.929) /_ -156.9
434   ( 72)    3           7.4066 (  0.9296) /_   83.1

ELEMENT = "Line.12465602_ID3280"
1102  ( 91)    1           7.3969 (  0.9284) /_  -37.1
1102  ( 92)    2           7.3977 (  0.9285) /_ -157.0
1102  ( 93)    3            7.402 (   0.929) /_   83.1
------------
1106  (115)    1            7.395 (  0.9282) /_  -37.1
1106  (116)    2           7.3959 (  0.9283) /_ -157.0
1106  (117)    3           7.4002 (  0.9288) /_   83.0

ELEMENT = "Line.12465588_ID5326"
2925  (118)    1           7.4765 (  0.9384) /_  -35.3
2925  (119)    2           7.4741 (  0.9381) /_ -155.2
2925  (120)    3           7.4786 (  0.9386) /_   84.8
------------
2926  ( 94)    1           7.4807 (  0.9389) /_  -35.2
2926  ( 95)    2           7.4784 (  0.9386) /_ -155.2
2926  ( 96)    3           7.4828 (  0.9392) /_   84.8

ELEMENT = "Line.12465584_ID5635"
2649  ( 97)    1           7.4798 (  0.9388) /_  -35.7
2649  ( 98)    2           7.4755 (  0.9383) /_ -155.7
2649  ( 99)    3           7.4799 (  0.9388) /_   84.3
------------
2835  (121)    1           7.4797 (  0.9388) /_  -35.7
2835  (122)    2           7.4754 (  0.9382) /_ -155.7
2835  (123)    3           7.4798 (  0.9388) /_   84.3

ELEMENT = "Line.12465589_ID4578"
2225  (124)    1           7.4806 (  0.9389) /_  -35.8
2225  (125)    2           7.4764 (  0.9384) /_ -155.8
2225  (126)    3           7.4807 (  0.9389) /_   84.2
------------
2226  (100)    1           7.4862 (  0.9396) /_  -35.7
2226  (101)    2           7.4822 (  0.9391) /_ -155.7
2226  (102)    3           7.4864 (  0.9396) /_   84.3

ELEMENT = "Line.12465598_ID6123"
930   (103)    1           7.3983 (  0.9286) /_  -37.0
930   (104)    2           7.3995 (  0.9287) /_ -156.9
930   (105)    3           7.4039 (  0.9293) /_   83.1
------------
934   (127)    1           7.3966 (  0.9284) /_  -37.1
934   (128)    2            7.398 (  0.9285) /_ -157.0
934   (129)    3           7.4024 (  0.9291) /_   83.1

ELEMENT = "Line.12465587_ID5899"
1977  (130)    1           7.4041 (  0.9293) /_  -37.1
1977  (131)    2           7.4045 (  0.9293) /_ -157.0
1977  (132)    3            7.409 (  0.9299) /_   83.0
------------
1978  (106)    1           7.4073 (  0.9297) /_  -37.0
1978  (107)    2           7.4076 (  0.9297) /_ -156.9
1978  (108)    3           7.4121 (  0.9303) /_   83.1

ELEMENT = "Line.12465590_ID3281"
1105  (133)    1           7.3841 (  0.9268) /_  -37.1
1105  (134)    2           7.3856 (   0.927) /_ -157.0
1105  (135)    3           7.3897 (  0.9275) /_   83.0
------------
1106  (115)    1            7.395 (  0.9282) /_  -37.1
1106  (116)    2           7.3959 (  0.9283) /_ -157.0
1106  (117)    3           7.4002 (  0.9288) /_   83.0

ELEMENT = "Line.12465638_ID5327"
2925  (118)    1           7.4765 (  0.9384) /_  -35.3
2925  (119)    2           7.4741 (  0.9381) /_ -155.2
2925  (120)    3           7.4786 (  0.9386) /_   84.8
------------
3029  (136)    1           7.4764 (  0.9384) /_  -35.3
3029  (137)    2            7.474 (  0.9381) /_ -155.2
3029  (138)    3           7.4784 (  0.9386) /_   84.8

ELEMENT = "Line.12465589_ID4579"
2224  (139)    1           7.4786 (  0.9386) /_  -35.8
2224  (140)    2           7.4744 (  0.9381) /_ -155.9
2224  (141)    3           7.4786 (  0.9387) /_   84.1
------------
2225  (124)    1           7.4806 (  0.9389) /_  -35.8
2225  (125)    2           7.4764 (  0.9384) /_ -155.8
2225  (126)    3           7.4807 (  0.9389) /_   84.2

ELEMENT = "Line.12465597_ID6124"
934   (127)    1           7.3966 (  0.9284) /_  -37.1
934   (128)    2            7.398 (  0.9285) /_ -157.0
934   (129)    3           7.4024 (  0.9291) /_   83.1
------------
933   (142)    1           7.3857 (   0.927) /_  -37.1
933   (143)    2            7.388 (  0.9273) /_ -157.0
933   (144)    3           7.3924 (  0.9278) /_   83.0

ELEMENT = "Line.12465587_ID5900"
1976  (145)    1           7.4004 (  0.9288) /_  -37.1
1976  (146)    2            7.401 (  0.9289) /_ -157.0
1976  (147)    3           7.4054 (  0.9295) /_   83.0
------------
1977  (130)    1           7.4041 (  0.9293) /_  -37.1
1977  (131)    2           7.4045 (  0.9293) /_ -157.0
1977  (132)    3            7.409 (  0.9299) /_   83.0

ELEMENT = "Line.363435319_ID4973"
9     (109)    1           7.4042 (  0.9293) /_  -37.0
9     (110)    2           7.4038 (  0.9293) /_ -156.9
9     (111)    3           7.4084 (  0.9298) /_   83.1
------------
7     (148)    1            7.399 (  0.9287) /_  -37.0
7     (149)    2           7.3983 (  0.9286) /_ -157.0
7     (150)    3            7.403 (  0.9292) /_   83.1

ELEMENT = "Line.363438448_ID4101"
432   (112)    1           7.3952 (  0.9282) /_  -37.1
432   (113)    2           7.3945 (  0.9281) /_ -157.0
432   (114)    3           7.3992 (  0.9287) /_   83.0
------------
431   (151)    1           7.3841 (  0.9268) /_  -37.1
431   (152)    2            7.383 (  0.9266) /_ -157.0
431   (153)    3           7.3879 (  0.9273) /_   83.0

ELEMENT = "Line.12465590_ID3282"
1105  (133)    1           7.3841 (  0.9268) /_  -37.1
1105  (134)    2           7.3856 (   0.927) /_ -157.0
1105  (135)    3           7.3897 (  0.9275) /_   83.0
------------
1104  (154)    1           7.3716 (  0.9252) /_  -37.2
1104  (155)    2           7.3737 (  0.9255) /_ -157.1
1104  (156)    3           7.3777 (   0.926) /_   82.9

ELEMENT = "Line.5674994_ID5636"
2833  (157)    1           7.4796 (  0.9388) /_  -35.7
2833  (158)    2           7.4753 (  0.9382) /_ -155.7
2833  (159)    3           7.4797 (  0.9388) /_   84.3
2833  (160)    4        0.0053304 (0.000669) /_ -142.8
------------
2835  (121)    1           7.4797 (  0.9388) /_  -35.7
2835  (122)    2           7.4754 (  0.9382) /_ -155.7
2835  (123)    3           7.4798 (  0.9388) /_   84.3
2835  (161)    4        0.0053306 (0.000669) /_ -142.8

ELEMENT = "Line.12465589_ID4580"
2228  (162)    1           7.4761 (  0.9383) /_  -35.9
2228  (163)    2           7.4718 (  0.9378) /_ -155.9
2228  (164)    3            7.476 (  0.9383) /_   84.1
------------
2224  (139)    1           7.4786 (  0.9386) /_  -35.8
2224  (140)    2           7.4744 (  0.9381) /_ -155.9
2224  (141)    3           7.4786 (  0.9387) /_   84.1

ELEMENT = "Line.12465597_ID6125"
933   (142)    1           7.3857 (   0.927) /_  -37.1
933   (143)    2            7.388 (  0.9273) /_ -157.0
933   (144)    3           7.3924 (  0.9278) /_   83.0
------------
932   (165)    1           7.3735 (  0.9255) /_  -37.2
932   (166)    2           7.3768 (  0.9259) /_ -157.1
932   (167)    3           7.3811 (  0.9264) /_   82.9

ELEMENT = "Line.12465587_ID5901"
1976  (145)    1           7.4004 (  0.9288) /_  -37.1
1976  (146)    2            7.401 (  0.9289) /_ -157.0
1976  (147)    3           7.4054 (  0.9295) /_   83.0
------------
1980  (168)    1           7.3991 (  0.9287) /_  -37.1
1980  (169)    2           7.3997 (  0.9287) /_ -157.0
1980  (170)    3           7.4042 (  0.9293) /_   83.0

ELEMENT = "Line.12465590_ID3283"
1104  (154)    1           7.3716 (  0.9252) /_  -37.2
1104  (155)    2           7.3737 (  0.9255) /_ -157.1
1104  (156)    3           7.3777 (   0.926) /_   82.9
------------
1108  (171)    1           7.3673 (  0.9247) /_  -37.3
1108  (172)    2           7.3695 (   0.925) /_ -157.2
1108  (173)    3           7.3735 (  0.9255) /_   82.9

ELEMENT = "Line.5675532_ID5328"
3029  (136)    1           7.4764 (  0.9384) /_  -35.3
3029  (137)    2            7.474 (  0.9381) /_ -155.2
3029  (138)    3           7.4784 (  0.9386) /_   84.8
3029  (174)    4       0.00079351 (9.959E-005) /_ -111.9
------------
3034  (175)    1           7.4762 (  0.9383) /_  -35.3
3034  (176)    2           7.4739 (  0.9381) /_ -155.2
3034  (177)    3           7.4783 (  0.9386) /_   84.8
3034  (178)    4       0.00079349 (9.959E-005) /_ -111.9

ELEMENT = "Line.5675005_ID5637"
2832  (179)    1           7.4786 (  0.9387) /_  -35.7
2832  (180)    2           7.4743 (  0.9381) /_ -155.7
2832  (181)    3           7.4787 (  0.9387) /_   84.3
------------
2833  (157)    1           7.4796 (  0.9388) /_  -35.7
2833  (158)    2           7.4753 (  0.9382) /_ -155.7
2833  (159)    3           7.4797 (  0.9388) /_   84.3

ELEMENT = "Line.5675006_ID5638"
2823  (182)    1           7.4796 (  0.9388) /_  -35.7
2823  (183)    2           7.4753 (  0.9382) /_ -155.7
2823  (184)    3           7.4797 (  0.9388) /_   84.3
2823  (185)    4        0.0053304 (0.000669) /_ -142.8
------------
2833  (157)    1           7.4796 (  0.9388) /_  -35.7
2833  (158)    2           7.4753 (  0.9382) /_ -155.7
2833  (159)    3           7.4797 (  0.9388) /_   84.3
2833  (160)    4        0.0053304 (0.000669) /_ -142.8

ELEMENT = "Line.12460924_ID4581"
2228  (162)    1           7.4761 (  0.9383) /_  -35.9
2228  (163)    2           7.4718 (  0.9378) /_ -155.9
2228  (164)    3            7.476 (  0.9383) /_   84.1
------------
2285  (186)    1            7.476 (  0.9383) /_  -35.9
2285  (187)    2           7.4717 (  0.9378) /_ -155.9
2285  (188)    3           7.4759 (  0.9383) /_   84.1

ELEMENT = "Line.12465597_ID6126"
932   (165)    1           7.3735 (  0.9255) /_  -37.2
932   (166)    2           7.3768 (  0.9259) /_ -157.1
932   (167)    3           7.3811 (  0.9264) /_   82.9
------------
936   (189)    1           7.3693 (  0.9249) /_  -37.3
936   (190)    2           7.3729 (  0.9254) /_ -157.1
936   (191)    3           7.3772 (  0.9259) /_   82.9

ELEMENT = "Line.12461017_ID5902"
1979  (192)    1           7.3962 (  0.9283) /_  -37.2
1979  (193)    2            7.397 (  0.9284) /_ -157.1
1979  (194)    3           7.4015 (   0.929) /_   82.9
------------
1980  (168)    1           7.3991 (  0.9287) /_  -37.1
1980  (169)    2           7.3997 (  0.9287) /_ -157.0
1980  (170)    3           7.4042 (  0.9293) /_   83.0

ELEMENT = "Line.363439152_ID4974"
7     (148)    1            7.399 (  0.9287) /_  -37.0
7     (149)    2           7.3983 (  0.9286) /_ -157.0
7     (150)    3            7.403 (  0.9292) /_   83.1
------------
5     (195)    1           7.3931 (  0.9279) /_  -37.1
5     (196)    2           7.3921 (  0.9278) /_ -157.0
5     (197)    3            7.397 (  0.9284) /_   83.0

ELEMENT = "Line.363439161_ID4102"
428   (198)    1           7.3716 (  0.9252) /_  -37.2
428   (199)    2           7.3699 (   0.925) /_ -157.1
428   (200)    3           7.3751 (  0.9257) /_   82.9
------------
431   (151)    1           7.3841 (  0.9268) /_  -37.1
431   (152)    2            7.383 (  0.9266) /_ -157.0
431   (153)    3           7.3879 (  0.9273) /_   83.0

ELEMENT = "Line.12461016_ID3284"
1107  (201)    1           7.3578 (  0.9235) /_  -37.3
1107  (202)    2           7.3605 (  0.9238) /_ -157.2
1107  (203)    3           7.3644 (  0.9243) /_   82.8
------------
1108  (171)    1           7.3673 (  0.9247) /_  -37.3
1108  (172)    2           7.3695 (   0.925) /_ -157.2
1108  (173)    3           7.3735 (  0.9255) /_   82.9

ELEMENT = "Line.5675530_ID5329"
3033  (204)    1           7.4762 (  0.9383) /_  -35.3
3033  (205)    2           7.4739 (  0.9381) /_ -155.2
3033  (206)    3           7.4783 (  0.9386) /_   84.8
------------
3034  (175)    1           7.4762 (  0.9383) /_  -35.3
3034  (176)    2           7.4739 (  0.9381) /_ -155.2
3034  (177)    3           7.4783 (  0.9386) /_   84.8

ELEMENT = "Line.5675531_ID5330"
3034  (175)    1           7.4762 (  0.9383) /_  -35.3
3034  (176)    2           7.4739 (  0.9381) /_ -155.2
3034  (177)    3           7.4783 (  0.9386) /_   84.8
------------
3031  (207)    1           7.4746 (  0.9381) /_  -35.3
3031  (208)    2           7.4723 (  0.9379) /_ -155.2
3031  (209)    3           7.4767 (  0.9384) /_   84.8

ELEMENT = "Line.5675005_ID5639"
2831  (210)    1           7.4773 (  0.9385) /_  -35.7
2831  (211)    2           7.4728 (  0.9379) /_ -155.7
2831  (212)    3           7.4773 (  0.9385) /_   84.3
------------
2832  (179)    1           7.4786 (  0.9387) /_  -35.7
2832  (180)    2           7.4743 (  0.9381) /_ -155.7
2832  (181)    3           7.4787 (  0.9387) /_   84.3

ELEMENT = "Line.12461015_ID6127"
935   (213)    1           7.3601 (  0.9238) /_  -37.3
935   (214)    2           7.3645 (  0.9243) /_ -157.2
935   (215)    3           7.3687 (  0.9249) /_   82.8
------------
936   (189)    1           7.3693 (  0.9249) /_  -37.3
936   (190)    2           7.3729 (  0.9254) /_ -157.1
936   (191)    3           7.3772 (  0.9259) /_   82.9

ELEMENT = "Line.12461018_ID5903"
1979  (192)    1           7.3962 (  0.9283) /_  -37.2
1979  (193)    2            7.397 (  0.9284) /_ -157.1
1979  (194)    3           7.4015 (   0.929) /_   82.9
------------
1981  (216)    1           7.3944 (  0.9281) /_  -37.2
1981  (217)    2           7.3953 (  0.9282) /_ -157.1
1981  (218)    3           7.3998 (  0.9288) /_   82.9

ELEMENT = "Line.363443284_ID4975"
4     (219)    1            7.391 (  0.9277) /_  -37.1
4     (220)    2           7.3899 (  0.9275) /_ -157.0
4     (221)    3           7.3949 (  0.9281) /_   83.0
------------
5     (195)    1           7.3931 (  0.9279) /_  -37.1
5     (196)    2           7.3921 (  0.9278) /_ -157.0
5     (197)    3            7.397 (  0.9284) /_   83.0

ELEMENT = "Line.363443292_ID4103"
425   (222)    1           7.3672 (  0.9247) /_  -37.2
425   (223)    2           7.3654 (  0.9244) /_ -157.2
425   (224)    3           7.3706 (  0.9251) /_   82.9
------------
428   (198)    1           7.3716 (  0.9252) /_  -37.2
428   (199)    2           7.3699 (   0.925) /_ -157.1
428   (200)    3           7.3751 (  0.9257) /_   82.9

ELEMENT = "Line.12461020_ID3285"
1107  (201)    1           7.3578 (  0.9235) /_  -37.3
1107  (202)    2           7.3605 (  0.9238) /_ -157.2
1107  (203)    3           7.3644 (  0.9243) /_   82.8
------------
1109  (225)    1            7.352 (  0.9228) /_  -37.4
1109  (226)    2            7.355 (  0.9231) /_ -157.3
1109  (227)    3           7.3588 (  0.9236) /_   82.7

ELEMENT = "Line.5675530_ID5331"
3032  (228)    1           7.4762 (  0.9383) /_  -35.3
3032  (229)    2           7.4739 (  0.9381) /_ -155.2
3032  (230)    3           7.4783 (  0.9386) /_   84.8
------------
3033  (204)    1           7.4762 (  0.9383) /_  -35.3
3033  (205)    2           7.4739 (  0.9381) /_ -155.2
3033  (206)    3           7.4783 (  0.9386) /_   84.8

ELEMENT = "Line.5675828_ID5332"
3017  (231)    1           7.4746 (  0.9381) /_  -35.3
3017  (232)    2           7.4723 (  0.9379) /_ -155.2
3017  (233)    3           7.4767 (  0.9384) /_   84.8
3017  (234)    4        0.0008516 (0.0001069) /_ -105.6
------------
3031  (207)    1           7.4746 (  0.9381) /_  -35.3
3031  (208)    2           7.4723 (  0.9379) /_ -155.2
3031  (209)    3           7.4767 (  0.9384) /_   84.8
3031  (235)    4        0.0008516 (0.0001069) /_ -105.6

ELEMENT = "Line.5675829_ID5333"
3016  (236)    1           7.4745 (  0.9381) /_  -35.3
3016  (237)    2           7.4722 (  0.9378) /_ -155.2
3016  (238)    3           7.4766 (  0.9384) /_   84.8
------------
3031  (207)    1           7.4746 (  0.9381) /_  -35.3
3031  (208)    2           7.4723 (  0.9379) /_ -155.2
3031  (209)    3           7.4767 (  0.9384) /_   84.8

ELEMENT = "Line.5675005_ID5640"
2830  (239)    1            7.476 (  0.9383) /_  -35.7
2830  (240)    2           7.4714 (  0.9377) /_ -155.7
2830  (241)    3           7.4759 (  0.9383) /_   84.3
------------
2831  (210)    1           7.4773 (  0.9385) /_  -35.7
2831  (211)    2           7.4728 (  0.9379) /_ -155.7
2831  (212)    3           7.4773 (  0.9385) /_   84.3

ELEMENT = "Line.5667238_ID4582"
2285  (186)    1            7.476 (  0.9383) /_  -35.9
2285  (187)    2           7.4717 (  0.9378) /_ -155.9
2285  (188)    3           7.4759 (  0.9383) /_   84.1
2285  (242)    4        0.0058674 (0.0007364) /_ -145.6
------------
2292  (243)    1           7.4759 (  0.9383) /_  -35.9
2292  (244)    2           7.4716 (  0.9378) /_ -155.9
2292  (245)    3           7.4759 (  0.9383) /_   84.1
2292  (246)    4        0.0058673 (0.0007364) /_ -145.6

ELEMENT = "Line.12461019_ID6128"
938   (247)    1            7.356 (  0.9233) /_  -37.4
938   (248)    2           7.3608 (  0.9239) /_ -157.2
938   (249)    3            7.365 (  0.9244) /_   82.8
------------
935   (213)    1           7.3601 (  0.9238) /_  -37.3
935   (214)    2           7.3645 (  0.9243) /_ -157.2
935   (215)    3           7.3687 (  0.9249) /_   82.8

ELEMENT = "Line.12460927_ID5904"
1981  (216)    1           7.3944 (  0.9281) /_  -37.2
1981  (217)    2           7.3953 (  0.9282) /_ -157.1
1981  (218)    3           7.3998 (  0.9288) /_   82.9
------------
1998  (250)    1           7.3944 (  0.9281) /_  -37.2
1998  (251)    2           7.3953 (  0.9282) /_ -157.1
1998  (252)    3           7.3997 (  0.9287) /_   82.9

ELEMENT = "Line.12460929_ID3286"
1109  (225)    1            7.352 (  0.9228) /_  -37.4
1109  (226)    2            7.355 (  0.9231) /_ -157.3
1109  (227)    3           7.3588 (  0.9236) /_   82.7
------------
1160  (253)    1           7.3519 (  0.9227) /_  -37.4
1160  (254)    2           7.3549 (  0.9231) /_ -157.3
1160  (255)    3           7.3587 (  0.9236) /_   82.7

ELEMENT = "Line.5675829_ID5334"
3015  (256)    1           7.4726 (  0.9379) /_  -35.3
3015  (257)    2           7.4703 (  0.9376) /_ -155.3
3015  (258)    3           7.4747 (  0.9382) /_   84.7
------------
3016  (236)    1           7.4745 (  0.9381) /_  -35.3
3016  (237)    2           7.4722 (  0.9378) /_ -155.2
3016  (238)    3           7.4766 (  0.9384) /_   84.8

ELEMENT = "Line.5675005_ID5641"
2829  (259)    1           7.4736 (   0.938) /_  -35.7
2829  (260)    2           7.4689 (  0.9374) /_ -155.7
2829  (261)    3           7.4734 (   0.938) /_   84.3
------------
2830  (239)    1            7.476 (  0.9383) /_  -35.7
2830  (240)    2           7.4714 (  0.9377) /_ -155.7
2830  (241)    3           7.4759 (  0.9383) /_   84.3

ELEMENT = "Line.5667225_ID4583"
2291  (262)    1           7.4754 (  0.9382) /_  -35.9
2291  (263)    2           7.4711 (  0.9377) /_ -155.9
2291  (264)    3           7.4753 (  0.9382) /_   84.1
2291  (265)    4        0.0058666 (0.0007363) /_ -145.6
------------
2292  (243)    1           7.4759 (  0.9383) /_  -35.9
2292  (244)    2           7.4716 (  0.9378) /_ -155.9
2292  (245)    3           7.4759 (  0.9383) /_   84.1
2292  (246)    4        0.0058673 (0.0007364) /_ -145.6

ELEMENT = "Line.5667226_ID4584"
2286  (266)    1           7.4759 (  0.9383) /_  -35.9
2286  (267)    2           7.4716 (  0.9378) /_ -155.9
2286  (268)    3           7.4759 (  0.9383) /_   84.1
2286  (269)    4        0.0058673 (0.0007364) /_ -145.6
------------
2292  (243)    1           7.4759 (  0.9383) /_  -35.9
2292  (244)    2           7.4716 (  0.9378) /_ -155.9
2292  (245)    3           7.4759 (  0.9383) /_   84.1
2292  (246)    4        0.0058673 (0.0007364) /_ -145.6

ELEMENT = "Line.12460997_ID6129"
1016  (270)    1           7.3558 (  0.9232) /_  -37.4
1016  (271)    2           7.3606 (  0.9238) /_ -157.2
1016  (272)    3           7.3649 (  0.9244) /_   82.8
------------
938   (247)    1            7.356 (  0.9233) /_  -37.4
938   (248)    2           7.3608 (  0.9239) /_ -157.2
938   (249)    3            7.365 (  0.9244) /_   82.8

ELEMENT = "Line.357366308_ID4976"
14    (273)    1           7.3888 (  0.9274) /_  -37.1
14    (274)    2           7.3875 (  0.9272) /_ -157.0
14    (275)    3           7.3925 (  0.9278) /_   83.0
------------
4     (219)    1            7.391 (  0.9277) /_  -37.1
4     (220)    2           7.3899 (  0.9275) /_ -157.0
4     (221)    3           7.3949 (  0.9281) /_   83.0

ELEMENT = "Line.363439174_ID4104"
426   (276)    1           7.3617 (   0.924) /_  -37.3
426   (277)    2           7.3596 (  0.9237) /_ -157.2
426   (278)    3           7.3649 (  0.9244) /_   82.8
------------
425   (222)    1           7.3672 (  0.9247) /_  -37.2
425   (223)    2           7.3654 (  0.9244) /_ -157.2
425   (224)    3           7.3706 (  0.9251) /_   82.9

ELEMENT = "Line.5676155_ID5335"
3014  (279)    1           7.4707 (  0.9377) /_  -35.3
3014  (280)    2           7.4683 (  0.9374) /_ -155.3
3014  (281)    3           7.4728 (  0.9379) /_   84.7
------------
3015  (256)    1           7.4726 (  0.9379) /_  -35.3
3015  (257)    2           7.4703 (  0.9376) /_ -155.3
3015  (258)    3           7.4747 (  0.9382) /_   84.7

ELEMENT = "Line.5676156_ID5336"
3013  (282)    1           7.4725 (  0.9379) /_  -35.3
3013  (283)    2           7.4701 (  0.9376) /_ -155.3
3013  (284)    3           7.4746 (  0.9381) /_   84.7
------------
3015  (256)    1           7.4726 (  0.9379) /_  -35.3
3015  (257)    2           7.4703 (  0.9376) /_ -155.3
3015  (258)    3           7.4747 (  0.9382) /_   84.7

ELEMENT = "Line.5675005_ID5642"
2829  (259)    1           7.4736 (   0.938) /_  -35.7
2829  (260)    2           7.4689 (  0.9374) /_ -155.7
2829  (261)    3           7.4734 (   0.938) /_   84.3
------------
2828  (285)    1           7.4722 (  0.9378) /_  -35.7
2828  (286)    2           7.4674 (  0.9372) /_ -155.8
2828  (287)    3            7.472 (  0.9378) /_   84.2

ELEMENT = "Line.5667225_ID4585"
2290  (288)    1           7.4733 (   0.938) /_  -35.9
2290  (289)    2           7.4689 (  0.9374) /_ -155.9
2290  (290)    3           7.4732 (   0.938) /_   84.1
2290  (291)    4         0.005864 (0.000736) /_ -145.7
------------
2291  (262)    1           7.4754 (  0.9382) /_  -35.9
2291  (263)    2           7.4711 (  0.9377) /_ -155.9
2291  (264)    3           7.4753 (  0.9382) /_   84.1
2291  (265)    4        0.0058666 (0.0007363) /_ -145.6

ELEMENT = "Line.5667354_ID4586"
2283  (292)    1           7.4759 (  0.9383) /_  -35.9
2283  (293)    2           7.4716 (  0.9378) /_ -155.9
2283  (294)    3           7.4759 (  0.9383) /_   84.1
2283  (295)    4        0.0058673 (0.0007364) /_ -145.6
------------
2286  (266)    1           7.4759 (  0.9383) /_  -35.9
2286  (267)    2           7.4716 (  0.9378) /_ -155.9
2286  (268)    3           7.4759 (  0.9383) /_   84.1
2286  (269)    4        0.0058673 (0.0007364) /_ -145.6

ELEMENT = "Line.5667355_ID4587"
2282  (296)    1           7.4759 (  0.9383) /_  -35.9
2282  (297)    2           7.4716 (  0.9378) /_ -155.9
2282  (298)    3           7.4759 (  0.9383) /_   84.1
2282  (299)    4        0.0058673 (0.0007364) /_ -145.6
------------
2286  (266)    1           7.4759 (  0.9383) /_  -35.9
2286  (267)    2           7.4716 (  0.9378) /_ -155.9
2286  (268)    3           7.4759 (  0.9383) /_   84.1
2286  (269)    4        0.0058673 (0.0007364) /_ -145.6

ELEMENT = "Line.5667268_ID5905"
2000  (300)    1           7.3944 (  0.9281) /_  -37.2
2000  (301)    2           7.3952 (  0.9282) /_ -157.1
2000  (302)    3           7.3997 (  0.9287) /_   82.9
2000  (303)    4         0.011078 ( 0.00139) /_   28.9
------------
1998  (250)    1           7.3944 (  0.9281) /_  -37.2
1998  (251)    2           7.3953 (  0.9282) /_ -157.1
1998  (252)    3           7.3997 (  0.9287) /_   82.9
1998  (304)    4         0.011078 ( 0.00139) /_   28.9

ELEMENT = "Line.5667300_ID3287"
1158  (305)    1           7.3517 (  0.9227) /_  -37.4
1158  (306)    2           7.3548 (  0.9231) /_ -157.3
1158  (307)    3           7.3586 (  0.9236) /_   82.7
1158  (308)    4          0.01221 (0.001533) /_   25.5
------------
1160  (253)    1           7.3519 (  0.9227) /_  -37.4
1160  (254)    2           7.3549 (  0.9231) /_ -157.3
1160  (255)    3           7.3587 (  0.9236) /_   82.7
1160  (309)    4          0.01221 (0.001533) /_   25.5

ELEMENT = "Line.5676509_ID5337"
3011  (310)    1           7.4707 (  0.9377) /_  -35.3
3011  (311)    2           7.4683 (  0.9374) /_ -155.3
3011  (312)    3           7.4728 (  0.9379) /_   84.7
------------
3014  (279)    1           7.4707 (  0.9377) /_  -35.3
3014  (280)    2           7.4683 (  0.9374) /_ -155.3
3014  (281)    3           7.4728 (  0.9379) /_   84.7

ELEMENT = "Line.5676510_ID5338"
3009  (313)    1           7.4703 (  0.9376) /_  -35.3
3009  (314)    2           7.4679 (  0.9373) /_ -155.3
3009  (315)    3           7.4724 (  0.9379) /_   84.7
------------
3014  (279)    1           7.4707 (  0.9377) /_  -35.3
3014  (280)    2           7.4683 (  0.9374) /_ -155.3
3014  (281)    3           7.4728 (  0.9379) /_   84.7

ELEMENT = "Line.5676212_ID5339"
3012  (316)    1           7.4725 (  0.9379) /_  -35.3
3012  (317)    2           7.4701 (  0.9376) /_ -155.3
3012  (318)    3           7.4746 (  0.9381) /_   84.7
3012  (319)    4        0.0030833 (0.000387) /_  137.0
------------
3013  (282)    1           7.4725 (  0.9379) /_  -35.3
3013  (283)    2           7.4701 (  0.9376) /_ -155.3
3013  (284)    3           7.4746 (  0.9381) /_   84.7
3013  (320)    4        0.0030833 (0.000387) /_  137.0

ELEMENT = "Line.5675005_ID5643"
2827  (321)    1           7.4712 (  0.9377) /_  -35.7
2827  (322)    2           7.4664 (  0.9371) /_ -155.8
2827  (323)    3            7.471 (  0.9377) /_   84.2
------------
2828  (285)    1           7.4722 (  0.9378) /_  -35.7
2828  (286)    2           7.4674 (  0.9372) /_ -155.8
2828  (287)    3            7.472 (  0.9378) /_   84.2

ELEMENT = "Line.5667225_ID4588"
2290  (288)    1           7.4733 (   0.938) /_  -35.9
2290  (289)    2           7.4689 (  0.9374) /_ -155.9
2290  (290)    3           7.4732 (   0.938) /_   84.1
2290  (291)    4         0.005864 (0.000736) /_ -145.7
------------
2294  (324)    1           7.4724 (  0.9379) /_  -35.9
2294  (325)    2           7.4679 (  0.9373) /_ -155.9
2294  (326)    3           7.4722 (  0.9378) /_   84.1
2294  (327)    4        0.0058628 (0.0007358) /_ -145.7

ELEMENT = "Line.5667664_ID6130"
1014  (328)    1           7.3557 (  0.9232) /_  -37.4
1014  (329)    2           7.3605 (  0.9238) /_ -157.2
1014  (330)    3           7.3648 (  0.9244) /_   82.8
1014  (331)    4         0.017141 (0.002151) /_   22.0
------------
1016  (270)    1           7.3558 (  0.9232) /_  -37.4
1016  (271)    2           7.3606 (  0.9238) /_ -157.2
1016  (272)    3           7.3649 (  0.9244) /_   82.8
1016  (332)    4         0.017142 (0.002151) /_   22.0

ELEMENT = "Line.5667260_ID5906"
1999  (333)    1           7.3944 (  0.9281) /_  -37.2
1999  (334)    2           7.3952 (  0.9282) /_ -157.1
1999  (335)    3           7.3997 (  0.9287) /_   82.9
------------
2000  (300)    1           7.3944 (  0.9281) /_  -37.2
2000  (301)    2           7.3952 (  0.9282) /_ -157.1
2000  (302)    3           7.3997 (  0.9287) /_   82.9

ELEMENT = "Line.5667261_ID5907"
2000  (300)    1           7.3944 (  0.9281) /_  -37.2
2000  (301)    2           7.3952 (  0.9282) /_ -157.1
2000  (302)    3           7.3997 (  0.9287) /_   82.9
------------
2003  (336)    1            7.394 (   0.928) /_  -37.2
2003  (337)    2           7.3949 (  0.9281) /_ -157.1
2003  (338)    3           7.3993 (  0.9287) /_   82.9

ELEMENT = "Line.363039876_ID4977"
40    (339)    1           7.3887 (  0.9274) /_  -37.1
40    (340)    2           7.3875 (  0.9272) /_ -157.0
40    (341)    3           7.3924 (  0.9278) /_   83.0
------------
14    (273)    1           7.3888 (  0.9274) /_  -37.1
14    (274)    2           7.3875 (  0.9272) /_ -157.0
14    (275)    3           7.3925 (  0.9278) /_   83.0

ELEMENT = "Line.363663319_ID4978"
14    (273)    1           7.3888 (  0.9274) /_  -37.1
14    (274)    2           7.3875 (  0.9272) /_ -157.0
14    (275)    3           7.3925 (  0.9278) /_   83.0
------------
30    (342)    1           7.3888 (  0.9274) /_  -37.1
30    (343)    2           7.3875 (  0.9272) /_ -157.0
30    (344)    3           7.3925 (  0.9278) /_   83.0

ELEMENT = "Line.359531326_ID4105"
572   (345)    1           7.3598 (  0.9237) /_  -37.3
572   (346)    2           7.3576 (  0.9235) /_ -157.2
572   (347)    3            7.363 (  0.9241) /_   82.8
------------
426   (276)    1           7.3617 (   0.924) /_  -37.3
426   (277)    2           7.3596 (  0.9237) /_ -157.2
426   (278)    3           7.3649 (  0.9244) /_   82.8

ELEMENT = "Line.363663835_ID4106"
540   (348)    1           7.3617 (   0.924) /_  -37.3
540   (349)    2           7.3596 (  0.9237) /_ -157.2
540   (350)    3           7.3649 (  0.9244) /_   82.8
------------
426   (276)    1           7.3617 (   0.924) /_  -37.3
426   (277)    2           7.3596 (  0.9237) /_ -157.2
426   (278)    3           7.3649 (  0.9244) /_   82.8

ELEMENT = "Line.5667301_ID3288"
1157  (351)    1           7.3517 (  0.9227) /_  -37.4
1157  (352)    2           7.3548 (  0.9231) /_ -157.3
1157  (353)    3           7.3586 (  0.9236) /_   82.7
1157  (354)    4          0.01221 (0.001533) /_   25.5
------------
1158  (305)    1           7.3517 (  0.9227) /_  -37.4
1158  (306)    2           7.3548 (  0.9231) /_ -157.3
1158  (307)    3           7.3586 (  0.9236) /_   82.7
1158  (308)    4          0.01221 (0.001533) /_   25.5

ELEMENT = "Line.5667302_ID3289"
1162  (355)    1           7.3511 (  0.9226) /_  -37.4
1162  (356)    2           7.3542 (   0.923) /_ -157.3
1162  (357)    3            7.358 (  0.9235) /_   82.7
------------
1158  (305)    1           7.3517 (  0.9227) /_  -37.4
1158  (306)    2           7.3548 (  0.9231) /_ -157.3
1158  (307)    3           7.3586 (  0.9236) /_   82.7

ELEMENT = "Line.5676509_ID5340"
3011  (310)    1           7.4707 (  0.9377) /_  -35.3
3011  (311)    2           7.4683 (  0.9374) /_ -155.3
3011  (312)    3           7.4728 (  0.9379) /_   84.7
------------
3010  (358)    1           7.4707 (  0.9376) /_  -35.3
3010  (359)    2           7.4683 (  0.9373) /_ -155.3
3010  (360)    3           7.4728 (  0.9379) /_   84.7

ELEMENT = "Line.5676510_ID5341"
3008  (361)    1           7.4691 (  0.9375) /_  -35.3
3008  (362)    2           7.4667 (  0.9372) /_ -155.3
3008  (363)    3           7.4712 (  0.9377) /_   84.7
------------
3009  (313)    1           7.4703 (  0.9376) /_  -35.3
3009  (314)    2           7.4679 (  0.9373) /_ -155.3
3009  (315)    3           7.4724 (  0.9379) /_   84.7

ELEMENT = "Line.5675005_ID5644"
2826  (364)    1           7.4703 (  0.9376) /_  -35.8
2826  (365)    2           7.4655 (   0.937) /_ -155.8
2826  (366)    3           7.4701 (  0.9376) /_   84.2
------------
2827  (321)    1           7.4712 (  0.9377) /_  -35.7
2827  (322)    2           7.4664 (  0.9371) /_ -155.8
2827  (323)    3            7.471 (  0.9377) /_   84.2

ELEMENT = "Line.5666143_ID4589"
2293  (367)    1           7.4724 (  0.9379) /_  -35.9
2293  (368)    2           7.4679 (  0.9373) /_ -155.9
2293  (369)    3           7.4722 (  0.9378) /_   84.1
2293  (370)    4        0.0058628 (0.0007358) /_ -145.7
------------
2294  (324)    1           7.4724 (  0.9379) /_  -35.9
2294  (325)    2           7.4679 (  0.9373) /_ -155.9
2294  (326)    3           7.4722 (  0.9378) /_   84.1
2294  (327)    4        0.0058628 (0.0007358) /_ -145.7

ELEMENT = "Line.5667225_ID4590"
2294  (324)    1           7.4724 (  0.9379) /_  -35.9
2294  (325)    2           7.4679 (  0.9373) /_ -155.9
2294  (326)    3           7.4722 (  0.9378) /_   84.1
2294  (327)    4        0.0058628 (0.0007358) /_ -145.7
------------
2289  (371)    1           7.4711 (  0.9377) /_  -36.0
2289  (372)    2           7.4666 (  0.9371) /_ -156.0
2289  (373)    3           7.4708 (  0.9377) /_   84.0
2289  (374)    4        0.0058611 (0.0007356) /_ -145.7

ELEMENT = "Line.5667680_ID6131"
1013  (375)    1           7.3532 (  0.9229) /_  -37.4
1013  (376)    2           7.3582 (  0.9235) /_ -157.2
1013  (377)    3           7.3625 (  0.9241) /_   82.8
1013  (378)    4         0.017136 (0.002151) /_   21.9
------------
1014  (328)    1           7.3557 (  0.9232) /_  -37.4
1014  (329)    2           7.3605 (  0.9238) /_ -157.2
1014  (330)    3           7.3648 (  0.9244) /_   82.8
1014  (331)    4         0.017141 (0.002151) /_   22.0

ELEMENT = "Line.5667681_ID6132"
1014  (328)    1           7.3557 (  0.9232) /_  -37.4
1014  (329)    2           7.3605 (  0.9238) /_ -157.2
1014  (330)    3           7.3648 (  0.9244) /_   82.8
1014  (331)    4         0.017141 (0.002151) /_   22.0
------------
1010  (379)    1           7.3557 (  0.9232) /_  -37.4
1010  (380)    2           7.3605 (  0.9238) /_ -157.2
1010  (381)    3           7.3648 (  0.9244) /_   82.8
1010  (382)    4         0.017141 (0.002151) /_   22.0

ELEMENT = "Line.5667051_ID5908"
2003  (336)    1            7.394 (   0.928) /_  -37.2
2003  (337)    2           7.3949 (  0.9281) /_ -157.1
2003  (338)    3           7.3993 (  0.9287) /_   82.9
------------
2005  (383)    1           7.3938 (   0.928) /_  -37.2
2005  (384)    2           7.3948 (  0.9281) /_ -157.1
2005  (385)    3           7.3992 (  0.9287) /_   82.9

ELEMENT = "Line.363039876_ID4979"
40    (339)    1           7.3887 (  0.9274) /_  -37.1
40    (340)    2           7.3875 (  0.9272) /_ -157.0
40    (341)    3           7.3924 (  0.9278) /_   83.0
------------
39    (386)    1           7.3884 (  0.9273) /_  -37.1
39    (387)    2           7.3871 (  0.9272) /_ -157.0
39    (388)    3           7.3921 (  0.9278) /_   83.0

ELEMENT = "Line.363663319_ID4980"
30    (342)    1           7.3888 (  0.9274) /_  -37.1
30    (343)    2           7.3875 (  0.9272) /_ -157.0
30    (344)    3           7.3925 (  0.9278) /_   83.0
------------
31    (389)    1           7.3888 (  0.9274) /_  -37.1
31    (390)    2           7.3875 (  0.9272) /_ -157.0
31    (391)    3           7.3925 (  0.9278) /_   83.0

ELEMENT = "Line.359530394_ID4107"
572   (345)    1           7.3598 (  0.9237) /_  -37.3
572   (346)    2           7.3576 (  0.9235) /_ -157.2
572   (347)    3            7.363 (  0.9241) /_   82.8
------------
580   (392)    1            7.358 (  0.9235) /_  -37.3
580   (393)    2           7.3557 (  0.9232) /_ -157.2
580   (394)    3           7.3611 (  0.9239) /_   82.8

ELEMENT = "Line.363663835_ID4108"
540   (348)    1           7.3617 (   0.924) /_  -37.3
540   (349)    2           7.3596 (  0.9237) /_ -157.2
540   (350)    3           7.3649 (  0.9244) /_   82.8
------------
539   (395)    1           7.3617 (   0.924) /_  -37.3
539   (396)    2           7.3596 (  0.9237) /_ -157.2
539   (397)    3           7.3649 (  0.9244) /_   82.8

ELEMENT = "Line.5667301_ID3290"
1157  (351)    1           7.3517 (  0.9227) /_  -37.4
1157  (352)    2           7.3548 (  0.9231) /_ -157.3
1157  (353)    3           7.3586 (  0.9236) /_   82.7
1157  (354)    4          0.01221 (0.001533) /_   25.5
------------
1156  (398)    1           7.3517 (  0.9227) /_  -37.4
1156  (399)    2           7.3548 (  0.9231) /_ -157.3
1156  (400)    3           7.3586 (  0.9236) /_   82.7
1156  (401)    4          0.01221 (0.001533) /_   25.5

ELEMENT = "Line.5667203_ID3291"
1161  (402)    1           7.3511 (  0.9226) /_  -37.4
1161  (403)    2           7.3542 (   0.923) /_ -157.3
1161  (404)    3            7.358 (  0.9235) /_   82.7
1161  (405)    4         0.012422 (0.001559) /_   42.9
------------
1162  (355)    1           7.3511 (  0.9226) /_  -37.4
1162  (356)    2           7.3542 (   0.923) /_ -157.3
1162  (357)    3            7.358 (  0.9235) /_   82.7
1162  (406)    4         0.012422 (0.001559) /_   42.9

ELEMENT = "Line.5667302_ID3292"
1155  (407)    1           7.3477 (  0.9222) /_  -37.4
1155  (408)    2           7.3511 (  0.9226) /_ -157.3
1155  (409)    3           7.3548 (  0.9231) /_   82.7
------------
1162  (355)    1           7.3511 (  0.9226) /_  -37.4
1162  (356)    2           7.3542 (   0.923) /_ -157.3
1162  (357)    3            7.358 (  0.9235) /_   82.7

ELEMENT = "Line.5681229_ID5342"
2999  (410)    1           7.4706 (  0.9376) /_  -35.3
2999  (411)    2           7.4682 (  0.9373) /_ -155.3
2999  (412)    3           7.4727 (  0.9379) /_   84.7
------------
3010  (358)    1           7.4707 (  0.9376) /_  -35.3
3010  (359)    2           7.4683 (  0.9373) /_ -155.3
3010  (360)    3           7.4728 (  0.9379) /_   84.7

ELEMENT = "Line.5675005_ID5645"
2826  (364)    1           7.4703 (  0.9376) /_  -35.8
2826  (365)    2           7.4655 (   0.937) /_ -155.8
2826  (366)    3           7.4701 (  0.9376) /_   84.2
------------
2825  (413)    1           7.4691 (  0.9375) /_  -35.8
2825  (414)    2           7.4641 (  0.9368) /_ -155.8
2825  (415)    3           7.4688 (  0.9374) /_   84.2

ELEMENT = "Line.5667225_ID4591"
2289  (371)    1           7.4711 (  0.9377) /_  -36.0
2289  (372)    2           7.4666 (  0.9371) /_ -156.0
2289  (373)    3           7.4708 (  0.9377) /_   84.0
2289  (374)    4        0.0058611 (0.0007356) /_ -145.7
------------
2288  (416)    1           7.4693 (  0.9375) /_  -36.0
2288  (417)    2           7.4647 (  0.9369) /_ -156.0
2288  (418)    3            7.469 (  0.9374) /_   84.0
2288  (419)    4        0.0058588 (0.0007353) /_ -145.7

ELEMENT = "Line.5667680_ID6133"
1013  (375)    1           7.3532 (  0.9229) /_  -37.4
1013  (376)    2           7.3582 (  0.9235) /_ -157.2
1013  (377)    3           7.3625 (  0.9241) /_   82.8
1013  (378)    4         0.017136 (0.002151) /_   21.9
------------
1012  (420)    1           7.3497 (  0.9225) /_  -37.4
1012  (421)    2            7.355 (  0.9231) /_ -157.3
1012  (422)    3           7.3592 (  0.9237) /_   82.7
1012  (423)    4         0.017128 ( 0.00215) /_   21.9

ELEMENT = "Line.5667698_ID6134"
1009  (424)    1           7.3532 (  0.9229) /_  -37.4
1009  (425)    2           7.3582 (  0.9235) /_ -157.2
1009  (426)    3           7.3625 (  0.9241) /_   82.8
1009  (427)    4         0.017136 (0.002151) /_   21.9
------------
1013  (375)    1           7.3532 (  0.9229) /_  -37.4
1013  (376)    2           7.3582 (  0.9235) /_ -157.2
1013  (377)    3           7.3625 (  0.9241) /_   82.8
1013  (378)    4         0.017136 (0.002151) /_   21.9

ELEMENT = "Line.5666936_ID5909"
2004  (428)    1           7.3938 (   0.928) /_  -37.2
2004  (429)    2           7.3948 (  0.9281) /_ -157.1
2004  (430)    3           7.3992 (  0.9287) /_   82.9
2004  (431)    4         0.010947 (0.001374) /_   31.7
------------
2005  (383)    1           7.3938 (   0.928) /_  -37.2
2005  (384)    2           7.3948 (  0.9281) /_ -157.1
2005  (385)    3           7.3992 (  0.9287) /_   82.9
2005  (432)    4         0.010947 (0.001374) /_   31.7

ELEMENT = "Line.5667051_ID5910"
2002  (433)    1           7.3933 (  0.9279) /_  -37.2
2002  (434)    2           7.3943 (  0.9281) /_ -157.1
2002  (435)    3           7.3987 (  0.9286) /_   82.9
------------
2005  (383)    1           7.3938 (   0.928) /_  -37.2
2005  (384)    2           7.3948 (  0.9281) /_ -157.1
2005  (385)    3           7.3992 (  0.9287) /_   82.9

ELEMENT = "Line.363039876_ID4981"
39    (386)    1           7.3884 (  0.9273) /_  -37.1
39    (387)    2           7.3871 (  0.9272) /_ -157.0
39    (388)    3           7.3921 (  0.9278) /_   83.0
------------
38    (436)    1           7.3882 (  0.9273) /_  -37.1
38    (437)    2           7.3869 (  0.9271) /_ -157.0
38    (438)    3           7.3919 (  0.9278) /_   83.0

ELEMENT = "Line.363663319_ID4982"
32    (439)    1           7.3888 (  0.9274) /_  -37.1
32    (440)    2           7.3875 (  0.9272) /_ -157.0
32    (441)    3           7.3925 (  0.9278) /_   83.0
------------
31    (389)    1           7.3888 (  0.9274) /_  -37.1
31    (390)    2           7.3875 (  0.9272) /_ -157.0
31    (391)    3           7.3925 (  0.9278) /_   83.0

ELEMENT = "Line.102369750_ID4109"
579   (442)    1           7.3556 (  0.9232) /_  -37.3
579   (443)    2           7.3531 (  0.9229) /_ -157.2
579   (444)    3           7.3586 (  0.9236) /_   82.8
------------
580   (392)    1            7.358 (  0.9235) /_  -37.3
580   (393)    2           7.3557 (  0.9232) /_ -157.2
580   (394)    3           7.3611 (  0.9239) /_   82.8

ELEMENT = "Line.363663835_ID4110"
538   (445)    1           7.3617 (   0.924) /_  -37.3
538   (446)    2           7.3596 (  0.9237) /_ -157.2
538   (447)    3           7.3649 (  0.9244) /_   82.8
------------
539   (395)    1           7.3617 (   0.924) /_  -37.3
539   (396)    2           7.3596 (  0.9237) /_ -157.2
539   (397)    3           7.3649 (  0.9244) /_   82.8

ELEMENT = "Line.5667302_ID3293"
1155  (407)    1           7.3477 (  0.9222) /_  -37.4
1155  (408)    2           7.3511 (  0.9226) /_ -157.3
1155  (409)    3           7.3548 (  0.9231) /_   82.7
------------
1170  (448)    1           7.3448 (  0.9218) /_  -37.4
1170  (449)    2           7.3483 (  0.9223) /_ -157.3
1170  (450)    3           7.3519 (  0.9227) /_   82.7

ELEMENT = "Line.5681229_ID5343"
2998  (451)    1           7.4705 (  0.9376) /_  -35.3
2998  (452)    2           7.4681 (  0.9373) /_ -155.3
2998  (453)    3           7.4726 (  0.9379) /_   84.7
------------
2999  (410)    1           7.4706 (  0.9376) /_  -35.3
2999  (411)    2           7.4682 (  0.9373) /_ -155.3
2999  (412)    3           7.4727 (  0.9379) /_   84.7

ELEMENT = "Line.5680987_ID5344"
3004  (454)    1           7.4671 (  0.9372) /_  -35.3
3004  (455)    2           7.4647 (  0.9369) /_ -155.3
3004  (456)    3           7.4692 (  0.9375) /_   84.7
------------
3008  (361)    1           7.4691 (  0.9375) /_  -35.3
3008  (362)    2           7.4667 (  0.9372) /_ -155.3
3008  (363)    3           7.4712 (  0.9377) /_   84.7

ELEMENT = "Line.5675005_ID5646"
2825  (413)    1           7.4691 (  0.9375) /_  -35.8
2825  (414)    2           7.4641 (  0.9368) /_ -155.8
2825  (415)    3           7.4688 (  0.9374) /_   84.2
------------
2824  (457)    1           7.4679 (  0.9373) /_  -35.8
2824  (458)    2           7.4629 (  0.9367) /_ -155.8
2824  (459)    3           7.4676 (  0.9373) /_   84.2

ELEMENT = "Line.5667225_ID4592"
2288  (416)    1           7.4693 (  0.9375) /_  -36.0
2288  (417)    2           7.4647 (  0.9369) /_ -156.0
2288  (418)    3            7.469 (  0.9374) /_   84.0
2288  (419)    4        0.0058588 (0.0007353) /_ -145.7
------------
2296  (460)    1           7.4678 (  0.9373) /_  -36.0
2296  (461)    2           7.4632 (  0.9367) /_ -156.0
2296  (462)    3           7.4675 (  0.9373) /_   84.0
2296  (463)    4         0.005857 (0.0007351) /_ -145.7

ELEMENT = "Line.5667680_ID6135"
1011  (464)    1            7.346 (   0.922) /_  -37.4
1011  (465)    2           7.3516 (  0.9227) /_ -157.3
1011  (466)    3           7.3558 (  0.9232) /_   82.7
1011  (467)    4          0.01712 (0.002149) /_   21.8
------------
1012  (420)    1           7.3497 (  0.9225) /_  -37.4
1012  (421)    2            7.355 (  0.9231) /_ -157.3
1012  (422)    3           7.3592 (  0.9237) /_   82.7
1012  (423)    4         0.017128 ( 0.00215) /_   21.9

ELEMENT = "Line.5667051_ID5911"
2002  (433)    1           7.3933 (  0.9279) /_  -37.2
2002  (434)    2           7.3943 (  0.9281) /_ -157.1
2002  (435)    3           7.3987 (  0.9286) /_   82.9
------------
2007  (468)    1           7.3928 (  0.9279) /_  -37.2
2007  (469)    2           7.3938 (   0.928) /_ -157.1
2007  (470)    3           7.3982 (  0.9285) /_   82.9

ELEMENT = "Line.363039876_ID4983"
37    (471)    1           7.3882 (  0.9273) /_  -37.1
37    (472)    2           7.3869 (  0.9271) /_ -157.0
37    (473)    3           7.3919 (  0.9278) /_   83.0
------------
38    (436)    1           7.3882 (  0.9273) /_  -37.1
38    (437)    2           7.3869 (  0.9271) /_ -157.0
38    (438)    3           7.3919 (  0.9278) /_   83.0

ELEMENT = "Line.363663319_ID4984"
32    (439)    1           7.3888 (  0.9274) /_  -37.1
32    (440)    2           7.3875 (  0.9272) /_ -157.0
32    (441)    3           7.3925 (  0.9278) /_   83.0
------------
33    (474)    1           7.3888 (  0.9274) /_  -37.1
33    (475)    2           7.3875 (  0.9272) /_ -157.0
33    (476)    3           7.3925 (  0.9278) /_   83.0

ELEMENT = "Line.102369750_ID4111"
579   (442)    1           7.3556 (  0.9232) /_  -37.3
579   (443)    2           7.3531 (  0.9229) /_ -157.2
579   (444)    3           7.3586 (  0.9236) /_   82.8
------------
618   (477)    1           7.3555 (  0.9232) /_  -37.3
618   (478)    2           7.3531 (  0.9229) /_ -157.2
618   (479)    3           7.3585 (  0.9236) /_   82.8

ELEMENT = "Line.5665972_ID3294"
1169  (480)    1           7.3448 (  0.9218) /_  -37.4
1169  (481)    2           7.3483 (  0.9223) /_ -157.3
1169  (482)    3           7.3519 (  0.9227) /_   82.7
1169  (483)    4         0.013012 (0.001633) /_   24.8
------------
1170  (448)    1           7.3448 (  0.9218) /_  -37.4
1170  (449)    2           7.3483 (  0.9223) /_ -157.3
1170  (450)    3           7.3519 (  0.9227) /_   82.7
1170  (484)    4         0.013012 (0.001633) /_   24.8

ELEMENT = "Line.5665973_ID3295"
1167  (485)    1           7.3445 (  0.9218) /_  -37.4
1167  (486)    2            7.348 (  0.9223) /_ -157.3
1167  (487)    3           7.3517 (  0.9227) /_   82.7
1167  (488)    4         0.013012 (0.001633) /_   24.8
------------
1170  (448)    1           7.3448 (  0.9218) /_  -37.4
1170  (449)    2           7.3483 (  0.9223) /_ -157.3
1170  (450)    3           7.3519 (  0.9227) /_   82.7
1170  (484)    4         0.013012 (0.001633) /_   24.8

ELEMENT = "Line.5681229_ID5345"
2997  (489)    1           7.4705 (  0.9376) /_  -35.3
2997  (490)    2           7.4681 (  0.9373) /_ -155.3
2997  (491)    3           7.4726 (  0.9379) /_   84.7
------------
2998  (451)    1           7.4705 (  0.9376) /_  -35.3
2998  (452)    2           7.4681 (  0.9373) /_ -155.3
2998  (453)    3           7.4726 (  0.9379) /_   84.7

ELEMENT = "Line.5681173_ID5346"
3003  (492)    1           7.4649 (  0.9369) /_  -35.3
3003  (493)    2           7.4624 (  0.9366) /_ -155.3
3003  (494)    3            7.467 (  0.9372) /_   84.7
------------
3004  (454)    1           7.4671 (  0.9372) /_  -35.3
3004  (455)    2           7.4647 (  0.9369) /_ -155.3
3004  (456)    3           7.4692 (  0.9375) /_   84.7

ELEMENT = "Line.5676355_ID5647"
2805  (495)    1           7.4669 (  0.9372) /_  -35.8
2805  (496)    2           7.4618 (  0.9365) /_ -155.8
2805  (497)    3           7.4665 (  0.9371) /_   84.2
------------
2824  (457)    1           7.4679 (  0.9373) /_  -35.8
2824  (458)    2           7.4629 (  0.9367) /_ -155.8
2824  (459)    3           7.4676 (  0.9373) /_   84.2

ELEMENT = "Line.5665137_ID4593"
2295  (498)    1           7.4678 (  0.9373) /_  -36.0
2295  (499)    2           7.4632 (  0.9367) /_ -156.0
2295  (500)    3           7.4675 (  0.9373) /_   84.0
2295  (501)    4         0.005857 (0.0007351) /_ -145.7
------------
2296  (460)    1           7.4678 (  0.9373) /_  -36.0
2296  (461)    2           7.4632 (  0.9367) /_ -156.0
...